Version 4
SHEET 1 880 680
WIRE 288 -176 -800 -176
WIRE 448 -176 288 -176
WIRE 288 -144 288 -176
WIRE 448 -80 448 -176
WIRE 288 -32 288 -64
WIRE 64 -16 -656 -16
WIRE 64 16 64 -16
WIRE 0 64 -48 64
WIRE 288 64 288 48
WIRE 448 64 448 -16
WIRE 448 64 288 64
WIRE 288 80 288 64
WIRE -176 160 -512 160
WIRE -48 160 -48 64
WIRE -48 160 -96 160
WIRE 64 160 64 112
WIRE 112 160 64 160
WIRE 240 160 192 160
WIRE -800 192 -800 -176
WIRE -656 192 -656 -16
WIRE 64 224 64 160
WIRE -48 272 -48 160
WIRE 0 272 -48 272
WIRE -512 336 -512 160
WIRE -800 464 -800 272
WIRE -656 464 -656 272
WIRE -656 464 -800 464
WIRE -512 464 -512 416
WIRE -512 464 -656 464
WIRE -256 464 -512 464
WIRE 64 464 64 320
WIRE 64 464 -256 464
WIRE 288 464 288 176
WIRE 288 464 64 464
WIRE -256 496 -256 464
FLAG -256 496 0
SYMBOL voltage -512 320 R0
WINDOW 123 0 0 Left 0
WINDOW 39 0 0 Left 0
SYMATTR InstName V2
SYMATTR Value PULSE(0 5 0 10e-8 10e-8 5e-5 10e-5)
SYMBOL nmos 240 80 R0
SYMATTR InstName M1
SYMATTR Value BSZ16DN25NS3
SYMBOL voltage -800 176 R0
WINDOW 123 0 0 Left 0
WINDOW 39 0 0 Left 0
SYMATTR InstName V3
SYMATTR Value 20
SYMBOL res 272 -48 R0
SYMATTR InstName R5
SYMATTR Value 2
SYMBOL ind 272 -160 R0
SYMATTR InstName L1
SYMATTR Value 2mH
SYMBOL schottky 464 -16 R180
WINDOW 0 24 64 Left 2
WINDOW 3 24 0 Left 2
SYMATTR InstName D1
SYMATTR Value MBR20100CT
SYMATTR Description Diode
SYMATTR Type diode
SYMBOL voltage -656 176 R0
WINDOW 123 0 0 Left 0
WINDOW 39 0 0 Left 0
SYMATTR InstName V1
SYMATTR Value 5
SYMBOL res -80 144 R90
WINDOW 0 0 56 VBottom 2
WINDOW 3 32 56 VTop 2
SYMATTR InstName R1
SYMATTR Value 1000
SYMBOL res 208 144 R90
WINDOW 0 0 56 VBottom 2
WINDOW 3 32 56 VTop 2
SYMATTR InstName R2
SYMATTR Value 1
SYMBOL npn 0 16 R0
SYMATTR InstName Q1
SYMBOL pnp 0 320 M180
SYMATTR InstName Q2
TEXT -834 520 Left 2 !.tran 10ms
